<?xml version="1.0" encoding="UTF-8"?>

<!-- generated on 2026-03-26T22:35:17.726009+05:30 by Eclipse SUMO netgenerate 1.26.0
<netgenerateConfiguration xmlns:xsi="http://www.w3.org/2001/XMLSchema-instance" xsi:noNamespaceSchemaLocation="http://sumo.dlr.de/xsd/netgenerateConfiguration.xsd">

    <grid_network>
        <grid value="true"/>
        <grid.length value="250"/>
        <grid.x-number value="3"/>
        <grid.y-number value="3"/>
    </grid_network>

    <output>
        <output-file value="sumo_demo\scenarios\real\single_intersection.net.xml"/>
    </output>

    <building_defaults>
        <default-junction-type value="traffic_light"/>
    </building_defaults>

    <tls_building>
        <tls.guess value="true"/>
        <tls.join value="true"/>
    </tls_building>

</netgenerateConfiguration>
-->

<net version="1.20" junctionCornerDetail="5" limitTurnSpeed="5.50" xmlns:xsi="http://www.w3.org/2001/XMLSchema-instance" xsi:noNamespaceSchemaLocation="http://sumo.dlr.de/xsd/net_file.xsd">

    <location netOffset="0.00,0.00" convBoundary="0.00,0.00,500.00,500.00" origBoundary="0.00,0.00,500.00,500.00" projParameter="!"/>

    <edge id=":A0_0" function="internal">
        <lane id=":A0_0_0" index="0" speed="6.08" length="7.74" shape="-1.60,3.20 -1.30,1.10 -0.40,-0.40 1.10,-1.30 3.20,-1.60"/>
    </edge>
    <edge id=":A0_1" function="internal">
        <lane id=":A0_1_0" index="0" speed="3.90" length="2.58" shape="3.20,1.60 2.50,1.70 2.00,2.00 1.70,2.50 1.60,3.20"/>
    </edge>
    <edge id=":A1_0" function="internal">
        <lane id=":A1_0_0" index="0" speed="13.89" length="14.40" shape="-1.60,257.20 -1.60,242.80"/>
    </edge>
    <edge id=":A1_1" function="internal">
        <lane id=":A1_1_0" index="0" speed="8.00" length="4.07" shape="-1.60,257.20 -1.05,253.35 -0.96,253.20"/>
    </edge>
    <edge id=":A1_2" function="internal">
        <lane id=":A1_2_0" index="0" speed="3.65" length="1.44" shape="-1.60,257.20 -0.80,256.00"/>
    </edge>
    <edge id=":A1_9" function="internal">
        <lane id=":A1_9_0" index="0" speed="8.00" length="10.13" shape="-0.96,253.20 0.60,250.60 3.35,248.95 7.20,248.40"/>
    </edge>
    <edge id=":A1_10" function="internal">
        <lane id=":A1_10_0" index="0" speed="3.65" length="3.23" shape="-0.80,256.00 0.00,255.60 0.80,256.00 1.60,257.20"/>
    </edge>
    <edge id=":A1_3" function="internal">
        <lane id=":A1_3_0" index="0" speed="6.51" length="9.03" shape="7.20,251.60 4.75,251.95 3.00,253.00 1.95,254.75 1.60,257.20"/>
    </edge>
    <edge id=":A1_4" function="internal">
        <lane id=":A1_4_0" index="0" speed="8.00" length="14.19" shape="7.20,251.60 3.35,251.05 0.60,249.40 -1.05,246.65 -1.60,242.80"/>
    </edge>
    <edge id=":A1_5" function="internal">
        <lane id=":A1_5_0" index="0" speed="3.65" length="1.44" shape="7.20,251.60 6.00,250.80"/>
    </edge>
    <edge id=":A1_11" function="internal">
        <lane id=":A1_11_0" index="0" speed="3.65" length="3.23" shape="6.00,250.80 5.60,250.00 6.00,249.20 7.20,248.40"/>
    </edge>
    <edge id=":A1_6" function="internal">
        <lane id=":A1_6_0" index="0" speed="6.51" length="9.03" shape="1.60,242.80 1.95,245.25 3.00,247.00 4.75,248.05 7.20,248.40"/>
    </edge>
    <edge id=":A1_7" function="internal">
        <lane id=":A1_7_0" index="0" speed="13.89" length="14.40" shape="1.60,242.80 1.60,257.20"/>
    </edge>
    <edge id=":A1_8" function="internal">
        <lane id=":A1_8_0" index="0" speed="3.65" length="1.44" shape="1.60,242.80 0.80,244.00"/>
    </edge>
    <edge id=":A1_12" function="internal">
        <lane id=":A1_12_0" index="0" speed="3.65" length="3.23" shape="0.80,244.00 0.00,244.40 -0.80,244.00 -1.60,242.80"/>
    </edge>
    <edge id=":A2_0" function="internal">
        <lane id=":A2_0_0" index="0" speed="6.08" length="7.74" shape="3.20,501.60 1.10,501.30 -0.40,500.40 -1.30,498.90 -1.60,496.80"/>
    </edge>
    <edge id=":A2_1" function="internal">
        <lane id=":A2_1_0" index="0" speed="3.90" length="2.58" shape="1.60,496.80 1.70,497.50 2.00,498.00 2.50,498.30 3.20,498.40"/>
    </edge>
    <edge id=":B0_0" function="internal">
        <lane id=":B0_0_0" index="0" speed="6.51" length="9.03" shape="248.40,7.20 248.05,4.75 247.00,3.00 245.25,1.95 242.80,1.60"/>
    </edge>
    <edge id=":B0_1" function="internal">
        <lane id=":B0_1_0" index="0" speed="8.00" length="14.19" shape="248.40,7.20 248.95,3.35 250.60,0.60 253.35,-1.05 257.20,-1.60"/>
    </edge>
    <edge id=":B0_2" function="internal">
        <lane id=":B0_2_0" index="0" speed="3.65" length="1.44" shape="248.40,7.20 249.20,6.00"/>
    </edge>
    <edge id=":B0_9" function="internal">
        <lane id=":B0_9_0" index="0" speed="3.65" length="3.23" shape="249.20,6.00 250.00,5.60 250.80,6.00 251.60,7.20"/>
    </edge>
    <edge id=":B0_3" function="internal">
        <lane id=":B0_3_0" index="0" speed="6.51" length="9.03" shape="257.20,1.60 254.75,1.95 253.00,3.00 251.95,4.75 251.60,7.20"/>
    </edge>
    <edge id=":B0_4" function="internal">
        <lane id=":B0_4_0" index="0" speed="13.89" length="14.40" shape="257.20,1.60 242.80,1.60"/>
    </edge>
    <edge id=":B0_5" function="internal">
        <lane id=":B0_5_0" index="0" speed="3.65" length="1.44" shape="257.20,1.60 256.00,0.80"/>
    </edge>
    <edge id=":B0_10" function="internal">
        <lane id=":B0_10_0" index="0" speed="3.65" length="3.23" shape="256.00,0.80 255.60,0.00 256.00,-0.80 257.20,-1.60"/>
    </edge>
    <edge id=":B0_6" function="internal">
        <lane id=":B0_6_0" index="0" speed="13.89" length="14.40" shape="242.80,-1.60 257.20,-1.60"/>
    </edge>
    <edge id=":B0_7" function="internal">
        <lane id=":B0_7_0" index="0" speed="8.00" length="4.07" shape="242.80,-1.60 246.65,-1.05 246.80,-0.96"/>
    </edge>
    <edge id=":B0_8" function="internal">
        <lane id=":B0_8_0" index="0" speed="3.65" length="1.44" shape="242.80,-1.60 244.00,-0.80"/>
    </edge>
    <edge id=":B0_11" function="internal">
        <lane id=":B0_11_0" index="0" speed="8.00" length="10.13" shape="246.80,-0.96 249.40,0.60 251.05,3.35 251.60,7.20"/>
    </edge>
    <edge id=":B0_12" function="internal">
        <lane id=":B0_12_0" index="0" speed="3.65" length="3.23" shape="244.00,-0.80 244.40,0.00 244.00,0.80 242.80,1.60"/>
    </edge>
    <edge id=":B1_0" function="internal">
        <lane id=":B1_0_0" index="0" speed="6.51" length="9.03" shape="248.40,257.20 248.05,254.75 247.00,253.00 245.25,251.95 242.80,251.60"/>
    </edge>
    <edge id=":B1_1" function="internal">
        <lane id=":B1_1_0" index="0" speed="13.89" length="14.40" shape="248.40,257.20 248.40,242.80"/>
    </edge>
    <edge id=":B1_2" function="internal">
        <lane id=":B1_2_0" index="0" speed="8.00" length="4.07" shape="248.40,257.20 248.95,253.35 249.04,253.20"/>
    </edge>
    <edge id=":B1_3" function="internal">
        <lane id=":B1_3_0" index="0" speed="3.65" length="1.44" shape="248.40,257.20 249.20,256.00"/>
    </edge>
    <edge id=":B1_16" function="internal">
        <lane id=":B1_16_0" index="0" speed="8.00" length="10.13" shape="249.04,253.20 250.60,250.60 253.35,248.95 257.20,248.40"/>
    </edge>
    <edge id=":B1_17" function="internal">
        <lane id=":B1_17_0" index="0" speed="3.65" length="3.23" shape="249.20,256.00 250.00,255.60 250.80,256.00 251.60,257.20"/>
    </edge>
    <edge id=":B1_4" function="internal">
        <lane id=":B1_4_0" index="0" speed="6.51" length="9.03" shape="257.20,251.60 254.75,251.95 253.00,253.00 251.95,254.75 251.60,257.20"/>
    </edge>
    <edge id=":B1_5" function="internal">
        <lane id=":B1_5_0" index="0" speed="13.89" length="14.40" shape="257.20,251.60 242.80,251.60"/>
    </edge>
    <edge id=":B1_6" function="internal">
        <lane id=":B1_6_0" index="0" speed="8.00" length="4.07" shape="257.20,251.60 253.35,251.05 253.20,250.96"/>
    </edge>
    <edge id=":B1_7" function="internal">
        <lane id=":B1_7_0" index="0" speed="3.65" length="1.44" shape="257.20,251.60 256.00,250.80"/>
    </edge>
    <edge id=":B1_18" function="internal">
        <lane id=":B1_18_0" index="0" speed="8.00" length="10.13" shape="253.20,250.96 250.60,249.40 248.95,246.65 248.40,242.80"/>
    </edge>
    <edge id=":B1_19" function="internal">
        <lane id=":B1_19_0" index="0" speed="3.65" length="3.23" shape="256.00,250.80 255.60,250.00 256.00,249.20 257.20,248.40"/>
    </edge>
    <edge id=":B1_8" function="internal">
        <lane id=":B1_8_0" index="0" speed="6.51" length="9.03" shape="251.60,242.80 251.95,245.25 253.00,247.00 254.75,248.05 257.20,248.40"/>
    </edge>
    <edge id=":B1_9" function="internal">
        <lane id=":B1_9_0" index="0" speed="13.89" length="14.40" shape="251.60,242.80 251.60,257.20"/>
    </edge>
    <edge id=":B1_10" function="internal">
        <lane id=":B1_10_0" index="0" speed="8.00" length="4.07" shape="251.60,242.80 251.05,246.65 250.96,246.80"/>
    </edge>
    <edge id=":B1_11" function="internal">
        <lane id=":B1_11_0" index="0" speed="3.65" length="1.44" shape="251.60,242.80 250.80,244.00"/>
    </edge>
    <edge id=":B1_20" function="internal">
        <lane id=":B1_20_0" index="0" speed="8.00" length="10.13" shape="250.96,246.80 249.40,249.40 246.65,251.05 242.80,251.60"/>
    </edge>
    <edge id=":B1_21" function="internal">
        <lane id=":B1_21_0" index="0" speed="3.65" length="3.23" shape="250.80,244.00 250.00,244.40 249.20,244.00 248.40,242.80"/>
    </edge>
    <edge id=":B1_12" function="internal">
        <lane id=":B1_12_0" index="0" speed="6.51" length="9.03" shape="242.80,248.40 245.25,248.05 247.00,247.00 248.05,245.25 248.40,242.80"/>
    </edge>
    <edge id=":B1_13" function="internal">
        <lane id=":B1_13_0" index="0" speed="13.89" length="14.40" shape="242.80,248.40 257.20,248.40"/>
    </edge>
    <edge id=":B1_14" function="internal">
        <lane id=":B1_14_0" index="0" speed="8.00" length="4.07" shape="242.80,248.40 246.65,248.95 246.80,249.04"/>
    </edge>
    <edge id=":B1_15" function="internal">
        <lane id=":B1_15_0" index="0" speed="3.65" length="1.44" shape="242.80,248.40 244.00,249.20"/>
    </edge>
    <edge id=":B1_22" function="internal">
        <lane id=":B1_22_0" index="0" speed="8.00" length="10.13" shape="246.80,249.04 249.40,250.60 251.05,253.35 251.60,257.20"/>
    </edge>
    <edge id=":B1_23" function="internal">
        <lane id=":B1_23_0" index="0" speed="3.65" length="3.23" shape="244.00,249.20 244.40,250.00 244.00,250.80 242.80,251.60"/>
    </edge>
    <edge id=":B2_0" function="internal">
        <lane id=":B2_0_0" index="0" speed="13.89" length="14.40" shape="257.20,501.60 242.80,501.60"/>
    </edge>
    <edge id=":B2_1" function="internal">
        <lane id=":B2_1_0" index="0" speed="8.00" length="4.07" shape="257.20,501.60 253.35,501.05 253.20,500.96"/>
    </edge>
    <edge id=":B2_2" function="internal">
        <lane id=":B2_2_0" index="0" speed="3.65" length="1.44" shape="257.20,501.60 256.00,500.80"/>
    </edge>
    <edge id=":B2_9" function="internal">
        <lane id=":B2_9_0" index="0" speed="8.00" length="10.13" shape="253.20,500.96 250.60,499.40 248.95,496.65 248.40,492.80"/>
    </edge>
    <edge id=":B2_10" function="internal">
        <lane id=":B2_10_0" index="0" speed="3.65" length="3.23" shape="256.00,500.80 255.60,500.00 256.00,499.20 257.20,498.40"/>
    </edge>
    <edge id=":B2_3" function="internal">
        <lane id=":B2_3_0" index="0" speed="6.51" length="9.03" shape="251.60,492.80 251.95,495.25 253.00,497.00 254.75,498.05 257.20,498.40"/>
    </edge>
    <edge id=":B2_4" function="internal">
        <lane id=":B2_4_0" index="0" speed="8.00" length="14.19" shape="251.60,492.80 251.05,496.65 249.40,499.40 246.65,501.05 242.80,501.60"/>
    </edge>
    <edge id=":B2_5" function="internal">
        <lane id=":B2_5_0" index="0" speed="3.65" length="1.44" shape="251.60,492.80 250.80,494.00"/>
    </edge>
    <edge id=":B2_11" function="internal">
        <lane id=":B2_11_0" index="0" speed="3.65" length="3.23" shape="250.80,494.00 250.00,494.40 249.20,494.00 248.40,492.80"/>
    </edge>
    <edge id=":B2_6" function="internal">
        <lane id=":B2_6_0" index="0" speed="6.51" length="9.03" shape="242.80,498.40 245.25,498.05 247.00,497.00 248.05,495.25 248.40,492.80"/>
    </edge>
    <edge id=":B2_7" function="internal">
        <lane id=":B2_7_0" index="0" speed="13.89" length="14.40" shape="242.80,498.40 257.20,498.40"/>
    </edge>
    <edge id=":B2_8" function="internal">
        <lane id=":B2_8_0" index="0" speed="3.65" length="1.44" shape="242.80,498.40 244.00,499.20"/>
    </edge>
    <edge id=":B2_12" function="internal">
        <lane id=":B2_12_0" index="0" speed="3.65" length="3.23" shape="244.00,499.20 244.40,500.00 244.00,500.80 242.80,501.60"/>
    </edge>
    <edge id=":C0_0" function="internal">
        <lane id=":C0_0_0" index="0" speed="3.90" length="2.58" shape="498.40,3.20 498.30,2.50 498.00,2.00 497.50,1.70 496.80,1.60"/>
    </edge>
    <edge id=":C0_1" function="internal">
        <lane id=":C0_1_0" index="0" speed="6.08" length="7.74" shape="496.80,-1.60 498.90,-1.30 500.40,-0.40 501.30,1.10 501.60,3.20"/>
    </edge>
    <edge id=":C1_0" function="internal">
        <lane id=":C1_0_0" index="0" speed="6.51" length="9.03" shape="498.40,257.20 498.05,254.75 497.00,253.00 495.25,251.95 492.80,251.60"/>
    </edge>
    <edge id=":C1_1" function="internal">
        <lane id=":C1_1_0" index="0" speed="13.89" length="14.40" shape="498.40,257.20 498.40,242.80"/>
    </edge>
    <edge id=":C1_2" function="internal">
        <lane id=":C1_2_0" index="0" speed="3.65" length="1.44" shape="498.40,257.20 499.20,256.00"/>
    </edge>
    <edge id=":C1_9" function="internal">
        <lane id=":C1_9_0" index="0" speed="3.65" length="3.23" shape="499.20,256.00 500.00,255.60 500.80,256.00 501.60,257.20"/>
    </edge>
    <edge id=":C1_3" function="internal">
        <lane id=":C1_3_0" index="0" speed="13.89" length="14.40" shape="501.60,242.80 501.60,257.20"/>
    </edge>
    <edge id=":C1_4" function="internal">
        <lane id=":C1_4_0" index="0" speed="8.00" length="4.07" shape="501.60,242.80 501.05,246.65 500.96,246.80"/>
    </edge>
    <edge id=":C1_5" function="internal">
        <lane id=":C1_5_0" index="0" speed="3.65" length="1.44" shape="501.60,242.80 500.80,244.00"/>
    </edge>
    <edge id=":C1_10" function="internal">
        <lane id=":C1_10_0" index="0" speed="8.00" length="10.13" shape="500.96,246.80 499.40,249.40 496.65,251.05 492.80,251.60"/>
    </edge>
    <edge id=":C1_11" function="internal">
        <lane id=":C1_11_0" index="0" speed="3.65" length="3.23" shape="500.80,244.00 500.00,244.40 499.20,244.00 498.40,242.80"/>
    </edge>
    <edge id=":C1_6" function="internal">
        <lane id=":C1_6_0" index="0" speed="6.51" length="9.03" shape="492.80,248.40 495.25,248.05 497.00,247.00 498.05,245.25 498.40,242.80"/>
    </edge>
    <edge id=":C1_7" function="internal">
        <lane id=":C1_7_0" index="0" speed="8.00" length="14.19" shape="492.80,248.40 496.65,248.95 499.40,250.60 501.05,253.35 501.60,257.20"/>
    </edge>
    <edge id=":C1_8" function="internal">
        <lane id=":C1_8_0" index="0" speed="3.65" length="1.44" shape="492.80,248.40 494.00,249.20"/>
    </edge>
    <edge id=":C1_12" function="internal">
        <lane id=":C1_12_0" index="0" speed="3.65" length="3.23" shape="494.00,249.20 494.40,250.00 494.00,250.80 492.80,251.60"/>
    </edge>
    <edge id=":C2_0" function="internal">
        <lane id=":C2_0_0" index="0" speed="6.08" length="7.74" shape="501.60,496.80 501.30,498.90 500.40,500.40 498.90,501.30 496.80,501.60"/>
    </edge>
    <edge id=":C2_1" function="internal">
        <lane id=":C2_1_0" index="0" speed="3.90" length="2.58" shape="496.80,498.40 497.50,498.30 498.00,498.00 498.30,497.50 498.40,496.80"/>
    </edge>

    <edge id="A0A1" from="A0" to="A1" priority="-1">
        <lane id="A0A1_0" index="0" speed="13.89" length="239.60" shape="1.60,3.20 1.60,242.80"/>
    </edge>
    <edge id="A0B0" from="A0" to="B0" priority="-1">
        <lane id="A0B0_0" index="0" speed="13.89" length="239.60" shape="3.20,-1.60 242.80,-1.60"/>
    </edge>
    <edge id="A1A0" from="A1" to="A0" priority="-1">
        <lane id="A1A0_0" index="0" speed="13.89" length="239.60" shape="-1.60,242.80 -1.60,3.20"/>
    </edge>
    <edge id="A1A2" from="A1" to="A2" priority="-1">
        <lane id="A1A2_0" index="0" speed="13.89" length="239.60" shape="1.60,257.20 1.60,496.80"/>
    </edge>
    <edge id="A1B1" from="A1" to="B1" priority="-1">
        <lane id="A1B1_0" index="0" speed="13.89" length="235.60" shape="7.20,248.40 242.80,248.40"/>
    </edge>
    <edge id="A2A1" from="A2" to="A1" priority="-1">
        <lane id="A2A1_0" index="0" speed="13.89" length="239.60" shape="-1.60,496.80 -1.60,257.20"/>
    </edge>
    <edge id="A2B2" from="A2" to="B2" priority="-1">
        <lane id="A2B2_0" index="0" speed="13.89" length="239.60" shape="3.20,498.40 242.80,498.40"/>
    </edge>
    <edge id="B0A0" from="B0" to="A0" priority="-1">
        <lane id="B0A0_0" index="0" speed="13.89" length="239.60" shape="242.80,1.60 3.20,1.60"/>
    </edge>
    <edge id="B0B1" from="B0" to="B1" priority="-1">
        <lane id="B0B1_0" index="0" speed="13.89" length="235.60" shape="251.60,7.20 251.60,242.80"/>
    </edge>
    <edge id="B0C0" from="B0" to="C0" priority="-1">
        <lane id="B0C0_0" index="0" speed="13.89" length="239.60" shape="257.20,-1.60 496.80,-1.60"/>
    </edge>
    <edge id="B1A1" from="B1" to="A1" priority="-1">
        <lane id="B1A1_0" index="0" speed="13.89" length="235.60" shape="242.80,251.60 7.20,251.60"/>
    </edge>
    <edge id="B1B0" from="B1" to="B0" priority="-1">
        <lane id="B1B0_0" index="0" speed="13.89" length="235.60" shape="248.40,242.80 248.40,7.20"/>
    </edge>
    <edge id="B1B2" from="B1" to="B2" priority="-1">
        <lane id="B1B2_0" index="0" speed="13.89" length="235.60" shape="251.60,257.20 251.60,492.80"/>
    </edge>
    <edge id="B1C1" from="B1" to="C1" priority="-1">
        <lane id="B1C1_0" index="0" speed="13.89" length="235.60" shape="257.20,248.40 492.80,248.40"/>
    </edge>
    <edge id="B2A2" from="B2" to="A2" priority="-1">
        <lane id="B2A2_0" index="0" speed="13.89" length="239.60" shape="242.80,501.60 3.20,501.60"/>
    </edge>
    <edge id="B2B1" from="B2" to="B1" priority="-1">
        <lane id="B2B1_0" index="0" speed="13.89" length="235.60" shape="248.40,492.80 248.40,257.20"/>
    </edge>
    <edge id="B2C2" from="B2" to="C2" priority="-1">
        <lane id="B2C2_0" index="0" speed="13.89" length="239.60" shape="257.20,498.40 496.80,498.40"/>
    </edge>
    <edge id="C0B0" from="C0" to="B0" priority="-1">
        <lane id="C0B0_0" index="0" speed="13.89" length="239.60" shape="496.80,1.60 257.20,1.60"/>
    </edge>
    <edge id="C0C1" from="C0" to="C1" priority="-1">
        <lane id="C0C1_0" index="0" speed="13.89" length="239.60" shape="501.60,3.20 501.60,242.80"/>
    </edge>
    <edge id="C1B1" from="C1" to="B1" priority="-1">
        <lane id="C1B1_0" index="0" speed="13.89" length="235.60" shape="492.80,251.60 257.20,251.60"/>
    </edge>
    <edge id="C1C0" from="C1" to="C0" priority="-1">
        <lane id="C1C0_0" index="0" speed="13.89" length="239.60" shape="498.40,242.80 498.40,3.20"/>
    </edge>
    <edge id="C1C2" from="C1" to="C2" priority="-1">
        <lane id="C1C2_0" index="0" speed="13.89" length="239.60" shape="501.60,257.20 501.60,496.80"/>
    </edge>
    <edge id="C2B2" from="C2" to="B2" priority="-1">
        <lane id="C2B2_0" index="0" speed="13.89" length="239.60" shape="496.80,501.60 257.20,501.60"/>
    </edge>
    <edge id="C2C1" from="C2" to="C1" priority="-1">
        <lane id="C2C1_0" index="0" speed="13.89" length="239.60" shape="498.40,496.80 498.40,257.20"/>
    </edge>

    <tlLogic id="A0" type="static" programID="0" offset="0">
        <phase duration="90" state="GG"/>
    </tlLogic>
    <tlLogic id="A1" type="static" programID="0" offset="0">
        <phase duration="42" state="GggrrrGGg"/>
        <phase duration="3"  state="yyyrrrGyy"/>
        <phase duration="42" state="rrrGGgGrr"/>
        <phase duration="3"  state="rrryyyGrr"/>
    </tlLogic>
    <tlLogic id="A2" type="static" programID="0" offset="0">
        <phase duration="90" state="GG"/>
    </tlLogic>
    <tlLogic id="B0" type="static" programID="0" offset="0">
        <phase duration="42" state="rrrGGgGgg"/>
        <phase duration="3"  state="rrrGyyyyy"/>
        <phase duration="42" state="GGgGrrrrr"/>
        <phase duration="3"  state="yyyGrrrrr"/>
    </tlLogic>
    <tlLogic id="B1" type="static" programID="0" offset="0">
        <phase duration="42" state="GGggrrrrGGggrrrr"/>
        <phase duration="3"  state="yyyyrrrryyyyrrrr"/>
        <phase duration="42" state="rrrrGGggrrrrGGgg"/>
        <phase duration="3"  state="rrrryyyyrrrryyyy"/>
    </tlLogic>
    <tlLogic id="B2" type="static" programID="0" offset="0">
        <phase duration="42" state="GggrrrGGg"/>
        <phase duration="3"  state="yyyrrrGyy"/>
        <phase duration="42" state="rrrGGgGrr"/>
        <phase duration="3"  state="rrryyyGrr"/>
    </tlLogic>
    <tlLogic id="C0" type="static" programID="0" offset="0">
        <phase duration="90" state="GG"/>
    </tlLogic>
    <tlLogic id="C1" type="static" programID="0" offset="0">
        <phase duration="42" state="GGgGggrrr"/>
        <phase duration="3"  state="Gyyyyyrrr"/>
        <phase duration="42" state="GrrrrrGGg"/>
        <phase duration="3"  state="Grrrrryyy"/>
    </tlLogic>
    <tlLogic id="C2" type="static" programID="0" offset="0">
        <phase duration="90" state="GG"/>
    </tlLogic>

    <junction id="A0" type="traffic_light" x="0.00" y="0.00" incLanes="A1A0_0 B0A0_0" intLanes=":A0_0_0 :A0_1_0" shape="-3.20,3.20 3.20,3.20 3.20,-3.20 -0.36,-2.49 -1.60,-1.60 -2.49,-0.36 -3.02,1.24">
        <request index="0" response="00" foes="00" cont="0"/>
        <request index="1" response="00" foes="00" cont="0"/>
    </junction>
    <junction id="A1" type="traffic_light" x="0.00" y="250.00" incLanes="A2A1_0 B1A1_0 A0A1_0" intLanes=":A1_0_0 :A1_9_0 :A1_10_0 :A1_3_0 :A1_4_0 :A1_11_0 :A1_6_0 :A1_7_0 :A1_12_0" shape="-3.20,257.20 3.20,257.20 3.64,254.98 4.20,254.20 4.98,253.64 5.98,253.31 7.20,253.20 7.20,246.80 4.98,246.36 4.20,245.80 3.64,245.02 3.31,244.02 3.20,242.80 -3.20,242.80">
        <request index="0" response="000000000" foes="100010000" cont="0"/>
        <request index="1" response="011000000" foes="011110000" cont="1"/>
        <request index="2" response="010001000" foes="010001000" cont="1"/>
        <request index="3" response="010000000" foes="010000100" cont="0"/>
        <request index="4" response="010000011" foes="110000011" cont="0"/>
        <request index="5" response="001000010" foes="001000010" cont="1"/>
        <request index="6" response="000000000" foes="000100010" cont="0"/>
        <request index="7" response="000000000" foes="000011110" cont="0"/>
        <request index="8" response="000010001" foes="000010001" cont="1"/>
    </junction>
    <junction id="A2" type="traffic_light" x="0.00" y="500.00" incLanes="B2A2_0 A1A2_0" intLanes=":A2_0_0 :A2_1_0" shape="3.20,503.20 3.20,496.80 -3.20,496.80 -2.49,500.36 -1.60,501.60 -0.36,502.49 1.24,503.02">
        <request index="0" response="00" foes="00" cont="0"/>
        <request index="1" response="00" foes="00" cont="0"/>
    </junction>
    <junction id="B0" type="traffic_light" x="250.00" y="0.00" incLanes="B1B0_0 C0B0_0 A0B0_0" intLanes=":B0_0_0 :B0_1_0 :B0_9_0 :B0_3_0 :B0_4_0 :B0_10_0 :B0_6_0 :B0_11_0 :B0_12_0" shape="246.80,7.20 253.20,7.20 253.64,4.98 254.20,4.20 254.98,3.64 255.98,3.31 257.20,3.20 257.20,-3.20 242.80,-3.20 242.80,3.20 245.02,3.64 245.80,4.20 246.36,4.98 246.69,5.98">
        <request index="0" response="000010000" foes="100010000" cont="0"/>
        <request index="1" response="011010000" foes="011110000" cont="0"/>
        <request index="2" response="010001000" foes="010001000" cont="1"/>
        <request index="3" response="000000000" foes="010000100" cont="0"/>
        <request index="4" response="000000000" foes="110000011" cont="0"/>
        <request index="5" response="001000010" foes="001000010" cont="1"/>
        <request index="6" response="000000000" foes="000100010" cont="0"/>
        <request index="7" response="000011000" foes="000011110" cont="1"/>
        <request index="8" response="000010001" foes="000010001" cont="1"/>
    </junction>
    <junction id="B1" type="traffic_light" x="250.00" y="250.00" incLanes="B2B1_0 C1B1_0 B0B1_0 A1B1_0" intLanes=":B1_0_0 :B1_1_0 :B1_16_0 :B1_17_0 :B1_4_0 :B1_5_0 :B1_18_0 :B1_19_0 :B1_8_0 :B1_9_0 :B1_20_0 :B1_21_0 :B1_12_0 :B1_13_0 :B1_22_0 :B1_23_0" shape="246.80,257.20 253.20,257.20 253.64,254.98 254.20,254.20 254.98,253.64 255.98,253.31 257.20,253.20 257.20,246.80 254.98,246.36 254.20,245.80 253.64,245.02 253.31,244.02 253.20,242.80 246.80,242.80 246.36,245.02 245.80,245.80 245.02,246.36 244.02,246.69 242.80,246.80 242.80,253.20 245.02,253.64 245.80,254.20 246.36,254.98 246.69,255.98">
        <request index="0"  response="0000000000000000" foes="1000010000100000" cont="0"/>
        <request index="1"  response="0100000001000000" foes="0111110001100000" cont="0"/>
        <request index="2"  response="0100001101000000" foes="0110011111100000" cont="1"/>
        <request index="3"  response="0100001000010000" foes="0100001000010000" cont="1"/>
        <request index="4"  response="0000001000000000" foes="0100001000001000" cont="0"/>
        <request index="5"  response="0000011000000111" foes="1100011000000111" cont="0"/>
        <request index="6"  response="0011011000000110" foes="0111111000000110" cont="1"/>
        <request index="7"  response="0010000100000100" foes="0010000100000100" cont="1"/>
        <request index="8"  response="0000000000000000" foes="0010000010000100" cont="0"/>
        <request index="9"  response="0100000001000000" foes="0110000001111100" cont="0"/>
        <request index="10" response="0100000001000111" foes="1110000001100111" cont="1"/>
        <request index="11" response="0001000001000010" foes="0001000001000010" cont="1"/>
        <request index="12" response="0000000000000010" foes="0000100001000010" cont="0"/>
        <request index="13" response="0000011100000110" foes="0000011111000110" cont="0"/>
        <request index="14" response="0000011001110110" foes="0000011001111110" cont="1"/>
        <request index="15" response="0000010000100001" foes="0000010000100001" cont="1"/>
    </junction>
    <junction id="B2" type="traffic_light" x="250.00" y="500.00" incLanes="C2B2_0 B1B2_0 A2B2_0" intLanes=":B2_0_0 :B2_9_0 :B2_10_0 :B2_3_0 :B2_4_0 :B2_11_0 :B2_6_0 :B2_7_0 :B2_12_0" shape="257.20,503.20 257.20,496.80 254.98,496.36 254.20,495.80 253.64,495.02 253.31,494.02 253.20,492.80 246.80,492.80 246.36,495.02 245.80,495.80 245.02,496.36 244.02,496.69 242.80,496.80 242.80,503.20">
        <request index="0" response="000000000" foes="100010000" cont="0"/>
        <request index="1" response="011000000" foes="011110000" cont="1"/>
        <request index="2" response="010001000" foes="010001000" cont="1"/>
        <request index="3" response="010000000" foes="010000100" cont="0"/>
        <request index="4" response="010000011" foes="110000011" cont="0"/>
        <request index="5" response="001000010" foes="001000010" cont="1"/>
        <request index="6" response="000000000" foes="000100010" cont="0"/>
        <request index="7" response="000000000" foes="000011110" cont="0"/>
        <request index="8" response="000010001" foes="000010001" cont="1"/>
    </junction>
    <junction id="C0" type="traffic_light" x="500.00" y="0.00" incLanes="C1C0_0 B0C0_0" intLanes=":C0_0_0 :C0_1_0" shape="496.80,3.20 503.20,3.20 502.49,-0.36 501.60,-1.60 500.36,-2.49 498.76,-3.02 496.80,-3.20">
        <request index="0" response="00" foes="00" cont="0"/>
        <request index="1" response="00" foes="00" cont="0"/>
    </junction>
    <junction id="C1" type="traffic_light" x="500.00" y="250.00" incLanes="C2C1_0 C0C1_0 B1C1_0" intLanes=":C1_0_0 :C1_1_0 :C1_9_0 :C1_3_0 :C1_10_0 :C1_11_0 :C1_6_0 :C1_7_0 :C1_12_0" shape="496.80,257.20 503.20,257.20 503.20,242.80 496.80,242.80 496.36,245.02 495.80,245.80 495.02,246.36 494.02,246.69 492.80,246.80 492.80,253.20 495.02,253.64 495.80,254.20 496.36,254.98 496.69,255.98">
        <request index="0" response="000000000" foes="100010000" cont="0"/>
        <request index="1" response="000000000" foes="011110000" cont="0"/>
        <request index="2" response="010001000" foes="010001000" cont="1"/>
        <request index="3" response="000000000" foes="010000100" cont="0"/>
        <request index="4" response="000000011" foes="110000011" cont="1"/>
        <request index="5" response="001000010" foes="001000010" cont="1"/>
        <request index="6" response="000000010" foes="000100010" cont="0"/>
        <request index="7" response="000011010" foes="000011110" cont="0"/>
        <request index="8" response="000010001" foes="000010001" cont="1"/>
    </junction>
    <junction id="C2" type="traffic_light" x="500.00" y="500.00" incLanes="C1C2_0 B2C2_0" intLanes=":C2_0_0 :C2_1_0" shape="503.20,496.80 496.80,496.80 496.80,503.20 500.36,502.49 501.60,501.60 502.49,500.36 503.02,498.76">
        <request index="0" response="00" foes="00" cont="0"/>
        <request index="1" response="00" foes="00" cont="0"/>
    </junction>

    <junction id=":A1_9_0" type="internal" x="-0.96" y="253.20" incLanes=":A1_1_0 A0A1_0" intLanes=":A1_4_0 :A1_5_0 :A1_6_0 :A1_7_0"/>
    <junction id=":A1_10_0" type="internal" x="-0.80" y="256.00" incLanes=":A1_2_0 A0A1_0 B1A1_0" intLanes=":A1_3_0 :A1_7_0"/>
    <junction id=":A1_11_0" type="internal" x="6.00" y="250.80" incLanes=":A1_5_0 A0A1_0 A2A1_0" intLanes=":A1_1_0 :A1_6_0"/>